Circuit: * C:\Users\Arthur Chen\OneDrive\ECEN 214-519\lab 5\Draft2.asc

Direct Newton iteration for .op point succeeded.

Date: Tue Mar 31 02:49:27 2020
Total elapsed time: 0.038 seconds.

tnom = 27
temp = 27
method = modified trap
totiter = 5777
traniter = 5759
tranpoints = 2029
accept = 1758
rejected = 271
matrix size = 8
fillins = 1
solver = Normal
Matrix Compiler1: 416 bytes object code size  0.1/0.1/[0.1]
Matrix Compiler2: off  [0.1]/0.1/0.1

