Circuit: * C:\Users\Arthur Chen\OneDrive\ECEN 214-519\lab 5\prelab.asc

Direct Newton iteration failed to find .op point.  (Use ".option noopiter" to skip.)
Starting Gmin stepping
Gmin = 10
Gmin = 1.07374
Gmin = 0.115292
Gmin = 0.0123794
Gmin = 0.00132923
Gmin = 0.000142725
Gmin = 1.5325e-005
Gmin = 1.6455e-006
Gmin = 1.76685e-007
Gmin = 1.89714e-008
Gmin = 2.03704e-009
Gmin = 2.18725e-010
Gmin = 2.34854e-011
Gmin = 2.52173e-012
Gmin = 2.70769e-013
Gmin = 0
Gmin stepping succeeded in finding the operating point.

Semiconductor Device Operating Points:
                        --- Diodes ---
Name:   detector    d§emitter
Model:      d           d
Id:     -5.01e-12   -5.01e-12
Vd:     -5.00e+00   -5.00e+00
Req:     1.00e+12    1.00e+12
CAP:     0.00e+00    0.00e+00



Date: Fri Mar 06 01:35:21 2020
Total elapsed time: 0.062 seconds.

tnom = 27
temp = 27
method = trap
totiter = 401
traniter = 0
tranpoints = 0
accept = 0
rejected = 0
matrix size = 25
fillins = 1
solver = Normal
Matrix Compiler1: 1.11 KB object code size
Matrix Compiler2: off  [0.2]/0.2/0.6

