Circuit: * C:\Users\Arthur Chen\OneDrive\ECEN 214-519\lab 3\figure_3_5.asc

Direct Newton iteration for .op point succeeded.

Date: Fri Feb 21 00:34:12 2020
Total elapsed time: 0.047 seconds.

tnom = 27
temp = 27
method = trap
totiter = 3
traniter = 0
tranpoints = 0
accept = 0
rejected = 0
matrix size = 6
fillins = 0
solver = Normal
Matrix Compiler1: 182 bytes object code size
Matrix Compiler2: 368 bytes object code size
