Circuit: * C:\Users\Arthur Chen\OneDrive\ECEN 214-519\lab 3\figure_3_6.asc

Direct Newton iteration for .op point succeeded.
Semiconductor Device Operating Points:
                        --- Diodes ---
Name:      d1
Model:   1n4148
Id:     -2.52e-09
Vd:     -1.03e+00
Req:     1.00e+12
CAP:     3.01e-12



Date: Fri Feb 21 00:45:20 2020
Total elapsed time: 0.069 seconds.

tnom = 27
temp = 27
method = trap
totiter = 10
traniter = 0
tranpoints = 0
accept = 0
rejected = 0
matrix size = 8
fillins = 0
solver = Normal
Matrix Compiler1: 246 bytes object code size
Matrix Compiler2: 526 bytes object code size
